LAMMPS (10 Mar 2021)
#uniaxial tensile test of graphene
variable 	 a equal  1
variable 	 c equal  2/(sqrt(3)*($a^2))
variable 	 c equal  2/(sqrt(3)*(1^2))

##---------------INITIALIZATION-------------------------------

units          metal
dimension 	    2
boundary       p p p
atom_style 	atomic
newton 		on

##---------------ATOM DEFINITION------------------------------

lattice hex $c origin 0 0 0
lattice hex 1.15470053837925 origin 0 0 0
Lattice spacing in x,y,z = 1.1547005 2.0000000 1.1547005
region whole block 0 10 0 10 -.5 .5
create_box 1 whole
Created orthogonal box = (0.0000000 0.0000000 -0.57735027) to (11.547005 20.000000 0.57735027)
create_atoms 1 region whole
Created 200 atoms

##---------------FORCE FIELDS---------------------------------

mass	      * 1.0
pair_style    mie/cut 1.25
pair_coeff    * * 1.0 1 12 6

##---------------SETTINGS-------------------------------------

timestep 	0.0005
variable   ts equal 0.0005

##---------------COMPUTES-------------------------------------

compute 	1 all stress/atom NULL
compute    2 all reduce sum c_1[1] c_1[2]

variable   Lx equal lx
variable   Ly equal ly
variable   Lz equal lz
variable   Vol equal vol
variable   thickn equal 3.4
fix 1 all nve
#fix		1 all npt temp 0 1e-20 0.05 x 0 0 0.5 y 0 0 0.5
thermo 	2000
##---------------RELAXATION--------------------------------------

run            50000
  update every 1 steps, delay 10 steps, check yes
Step Temp E_pair E_mol TotEng Press
0            0   -585.35156            0   -585.35156   -3292663.2
Averages over the last 13 of 26 rows, steps 26000 to 50000:
Temp E_pair E_mol TotEng Press
3.94379e-21 -585.352 0 -585.352 -3.29266e+06
Loop time of 32.4381 on 4 procs for 50000 steps with 200 atoms

##---------------DEFORMATION--------------------------------------
unfix              1
reset_timestep     0
fix		1 all npt temp 1e-20 1e-20 0.05 x 0 0 0.5
fix        2 all ave/time 1 100 100 c_2[1] c_2[2]
fix        3 all ave/time 1 100 100 v_Lx v_Ly v_Lz v_Vol
variable   srate equal 1.0e9
variable   srate1 equal "-v_srate / 1.0e12"
fix		4 all deform 1 y erate -0.001 units box remap x
run            100
Step Temp E_pair E_mol TotEng Press Volume
0 5.0942123e-21   -585.35156            0   -585.35156   -3292663.2    230.94011
ERROR: Non-numeric pressure - simulation unstable (../fix_nh.cpp:1062)
Last command: run            100
